Pcp_File_Version=4
*** BLOCK I: ATMOSPHERIC INFORMATION  **********************************
   MaxAL                    (MaxAL = number of atmospheric data-records)
    100
 DailyVar  SinusVar  lLay  lBCCycles lInterc lDummy  lDummy  lDummy  lDummy  lDummy
       f       f       f       f       f       f       f       f       f       f
 hCritS                 (max. allowed pressure head at the soil surface)
      0
       tAtm        Prec       rSoil       rRoot      hCritA          rB          hB          ht    RootDepth
        0.1     1.59419           0           0      100000           0           0           0 
        0.2       1.688           0           0      100000           0           0           0 
        0.3     1.78107           0           0      100000           0           0           0 
        0.4     1.87303           0           0      100000           0           0           0 
        0.5     1.96353           0           0      100000           0           0           0 
        0.6     2.05219           0           0      100000           0           0           0 
        0.7     2.13867           0           0      100000           0           0           0 
        0.8     2.22263           0           0      100000           0           0           0 
        0.9     2.30374           0           0      100000           0           0           0 
          1     2.38168           0           0      100000           0           0           0 
        1.1     2.45614           0           0      100000           0           0           0 
        1.2     2.52682           0           0      100000           0           0           0 
        1.3     2.59345           0           0      100000           0           0           0 
        1.4     2.65577           0           0      100000           0           0           0 
        1.5     2.71353           0           0      100000           0           0           0 
        1.6     2.76649           0           0      100000           0           0           0 
        1.7     2.81446           0           0      100000           0           0           0 
        1.8     2.85724           0           0      100000           0           0           0 
        1.9     2.89466           0           0      100000           0           0           0 
          2     2.92658           0           0      100000           0           0           0 
        2.1     2.95287           0           0      100000           0           0           0 
        2.2     2.97343           0           0      100000           0           0           0 
        2.3     2.98817           0           0      100000           0           0           0 
        2.4     2.99704           0           0      100000           0           0           0 
        2.5           3           0           0      100000           0           0           0 
        2.6     2.99704           0           0      100000           0           0           0 
        2.7     2.98817           0           0      100000           0           0           0 
        2.8     2.97343           0           0      100000           0           0           0 
        2.9     2.95287           0           0      100000           0           0           0 
          3     2.92658           0           0      100000           0           0           0 
        3.1     2.89466           0           0      100000           0           0           0 
        3.2     2.85724           0           0      100000           0           0           0 
        3.3     2.81446           0           0      100000           0           0           0 
        3.4     2.76649           0           0      100000           0           0           0 
        3.5     2.71353           0           0      100000           0           0           0 
        3.6     2.65577           0           0      100000           0           0           0 
        3.7     2.59345           0           0      100000           0           0           0 
        3.8     2.52682           0           0      100000           0           0           0 
        3.9     2.45614           0           0      100000           0           0           0 
          4     2.38168           0           0      100000           0           0           0 
        4.1     2.30374           0           0      100000           0           0           0 
        4.2     2.22263           0           0      100000           0           0           0 
        4.3     2.13867           0           0      100000           0           0           0 
        4.4     2.05219           0           0      100000           0           0           0 
        4.5     1.96353           0           0      100000           0           0           0 
        4.6     1.87303           0           0      100000           0           0           0 
        4.7     1.78107           0           0      100000           0           0           0 
        4.8       1.688           0           0      100000           0           0           0 
        4.9     1.59419           0           0      100000           0           0           0 
          5         1.5           0           0      100000           0           0           0 
        5.1     1.40581           0           0      100000           0           0           0 
        5.2       1.312           0           0      100000           0           0           0 
        5.3     1.21893           0           0      100000           0           0           0 
        5.4     1.12697           0           0      100000           0           0           0 
        5.5     1.03647           0           0      100000           0           0           0 
        5.6    0.947813           0           0      100000           0           0           0 
        5.7    0.861331           0           0      100000           0           0           0 
        5.8    0.777369           0           0      100000           0           0           0 
        5.9     0.69626           0           0      100000           0           0           0 
          6    0.618322           0           0      100000           0           0           0 
        6.1    0.543864           0           0      100000           0           0           0 
        6.2    0.473179           0           0      100000           0           0           0 
        6.3    0.406547           0           0      100000           0           0           0 
        6.4     0.34423           0           0      100000           0           0           0 
        6.5    0.286474           0           0      100000           0           0           0 
        6.6    0.233508           0           0      100000           0           0           0 
        6.7     0.18554           0           0      100000           0           0           0 
        6.8    0.142759           0           0      100000           0           0           0 
        6.9    0.105335           0           0      100000           0           0           0 
          7   0.0734152           0           0      100000           0           0           0 
        7.1   0.0471253           0           0      100000           0           0           0 
        7.2   0.0265691           0           0      100000           0           0           0 
        7.3   0.0118279           0           0      100000           0           0           0 
        7.4  0.00295991           0           0      100000           0           0           0 
        7.5           0           0           0      100000           0           0           0 
        7.6  0.00295991           0           0      100000           0           0           0 
        7.7   0.0118279           0           0      100000           0           0           0 
        7.8   0.0265691           0           0      100000           0           0           0 
        7.9   0.0471253           0           0      100000           0           0           0 
          8   0.0734152           0           0      100000           0           0           0 
        8.1    0.105335           0           0      100000           0           0           0 
        8.2    0.142759           0           0      100000           0           0           0 
        8.3     0.18554           0           0      100000           0           0           0 
        8.4    0.233508           0           0      100000           0           0           0 
        8.5    0.286474           0           0      100000           0           0           0 
        8.6     0.34423           0           0      100000           0           0           0 
        8.7    0.406547           0           0      100000           0           0           0 
        8.8    0.473179           0           0      100000           0           0           0 
        8.9    0.543864           0           0      100000           0           0           0 
          9    0.618322           0           0      100000           0           0           0 
        9.1     0.69626           0           0      100000           0           0           0 
        9.2    0.777369           0           0      100000           0           0           0 
        9.3    0.861331           0           0      100000           0           0           0 
        9.4    0.947813           0           0      100000           0           0           0 
        9.5     1.03647           0           0      100000           0           0           0 
        9.6     1.12697           0           0      100000           0           0           0 
        9.7     1.21893           0           0      100000           0           0           0 
        9.8       1.312           0           0      100000           0           0           0 
        9.9     1.40581           0           0      100000           0           0           0 
         10         1.5           0           0      100000           0           0           0 
end*** END OF INPUT FILE 'ATMOSPH.IN' **********************************
