Pcp_File_Version=4
    2
    1  0.000000e+000  1.000000e+000  1.000000e+000
    2 -9.900000e+001  1.000000e+000  1.000000e+000
  100    0    0    1 x         h      Mat  Lay      Beta           Axz            Bxz            Dxz          Temp          Conc 
    1 -0.000000e+000 -1.000000e+002    1    1  0.000000e+000  1.000000e+000  1.000000e+000  1.000000e+000              
    2 -1.000000e+000 -1.000000e+002    2    2  0.000000e+000  1.000000e+000  1.000000e+000  1.000000e+000              
    3 -2.000000e+000 -1.000000e+002    3    3  0.000000e+000  1.000000e+000  1.000000e+000  1.000000e+000              
    4 -3.000000e+000 -1.000000e+002    4    4  0.000000e+000  1.000000e+000  1.000000e+000  1.000000e+000              
    5 -4.000000e+000 -1.000000e+002    5    5  0.000000e+000  1.000000e+000  1.000000e+000  1.000000e+000              
    6 -5.000000e+000 -1.000000e+002    6    6  0.000000e+000  1.000000e+000  1.000000e+000  1.000000e+000              
    7 -6.000000e+000 -1.000000e+002    7    7  0.000000e+000  1.000000e+000  1.000000e+000  1.000000e+000              
    8 -7.000000e+000 -1.000000e+002    8    8  0.000000e+000  1.000000e+000  1.000000e+000  1.000000e+000              
    9 -8.000000e+000 -1.000000e+002    9    9  0.000000e+000  1.000000e+000  1.000000e+000  1.000000e+000              
   10 -9.000000e+000 -1.000000e+002   10   10  0.000000e+000  1.000000e+000  1.000000e+000  1.000000e+000              
   11 -1.000000e+001 -1.000000e+002   11   11  0.000000e+000  1.000000e+000  1.000000e+000  1.000000e+000              
   12 -1.100000e+001 -1.000000e+002   12   12  0.000000e+000  1.000000e+000  1.000000e+000  1.000000e+000              
   13 -1.200000e+001 -1.000000e+002   13   13  0.000000e+000  1.000000e+000  1.000000e+000  1.000000e+000              
   14 -1.300000e+001 -1.000000e+002   14   14  0.000000e+000  1.000000e+000  1.000000e+000  1.000000e+000              
   15 -1.400000e+001 -1.000000e+002   15   15  0.000000e+000  1.000000e+000  1.000000e+000  1.000000e+000              
   16 -1.500000e+001 -1.000000e+002   16   16  0.000000e+000  1.000000e+000  1.000000e+000  1.000000e+000              
   17 -1.600000e+001 -1.000000e+002   17   17  0.000000e+000  1.000000e+000  1.000000e+000  1.000000e+000              
   18 -1.700000e+001 -1.000000e+002   18   18  0.000000e+000  1.000000e+000  1.000000e+000  1.000000e+000              
   19 -1.800000e+001 -1.000000e+002   19   19  0.000000e+000  1.000000e+000  1.000000e+000  1.000000e+000              
   20 -1.900000e+001 -1.000000e+002   20   20  0.000000e+000  1.000000e+000  1.000000e+000  1.000000e+000              
   21 -2.000000e+001 -1.000000e+002   21   21  0.000000e+000  1.000000e+000  1.000000e+000  1.000000e+000              
   22 -2.100000e+001 -1.000000e+002   22   22  0.000000e+000  1.000000e+000  1.000000e+000  1.000000e+000              
   23 -2.200000e+001 -1.000000e+002   23   23  0.000000e+000  1.000000e+000  1.000000e+000  1.000000e+000              
   24 -2.300000e+001 -1.000000e+002   24   24  0.000000e+000  1.000000e+000  1.000000e+000  1.000000e+000              
   25 -2.400000e+001 -1.000000e+002   25   25  0.000000e+000  1.000000e+000  1.000000e+000  1.000000e+000              
   26 -2.500000e+001 -1.000000e+002   26   26  0.000000e+000  1.000000e+000  1.000000e+000  1.000000e+000              
   27 -2.600000e+001 -1.000000e+002   27   27  0.000000e+000  1.000000e+000  1.000000e+000  1.000000e+000              
   28 -2.700000e+001 -1.000000e+002   28   28  0.000000e+000  1.000000e+000  1.000000e+000  1.000000e+000              
   29 -2.800000e+001 -1.000000e+002   29   29  0.000000e+000  1.000000e+000  1.000000e+000  1.000000e+000              
   30 -2.900000e+001 -1.000000e+002   30   30  0.000000e+000  1.000000e+000  1.000000e+000  1.000000e+000              
   31 -3.000000e+001 -1.000000e+002   31   31  0.000000e+000  1.000000e+000  1.000000e+000  1.000000e+000              
   32 -3.100000e+001 -1.000000e+002   32   32  0.000000e+000  1.000000e+000  1.000000e+000  1.000000e+000              
   33 -3.200000e+001 -1.000000e+002   33   33  0.000000e+000  1.000000e+000  1.000000e+000  1.000000e+000              
   34 -3.300000e+001 -1.000000e+002   34   34  0.000000e+000  1.000000e+000  1.000000e+000  1.000000e+000              
   35 -3.400000e+001 -1.000000e+002   35   35  0.000000e+000  1.000000e+000  1.000000e+000  1.000000e+000              
   36 -3.500000e+001 -1.000000e+002   36   36  0.000000e+000  1.000000e+000  1.000000e+000  1.000000e+000              
   37 -3.600000e+001 -1.000000e+002   37   37  0.000000e+000  1.000000e+000  1.000000e+000  1.000000e+000              
   38 -3.700000e+001 -1.000000e+002   38   38  0.000000e+000  1.000000e+000  1.000000e+000  1.000000e+000              
   39 -3.800000e+001 -1.000000e+002   39   39  0.000000e+000  1.000000e+000  1.000000e+000  1.000000e+000              
   40 -3.900000e+001 -1.000000e+002   40   40  0.000000e+000  1.000000e+000  1.000000e+000  1.000000e+000              
   41 -4.000000e+001 -1.000000e+002   41   41  0.000000e+000  1.000000e+000  1.000000e+000  1.000000e+000              
   42 -4.100000e+001 -1.000000e+002   42   42  0.000000e+000  1.000000e+000  1.000000e+000  1.000000e+000              
   43 -4.200000e+001 -1.000000e+002   43   43  0.000000e+000  1.000000e+000  1.000000e+000  1.000000e+000              
   44 -4.300000e+001 -1.000000e+002   44   44  0.000000e+000  1.000000e+000  1.000000e+000  1.000000e+000              
   45 -4.400000e+001 -1.000000e+002   45   45  0.000000e+000  1.000000e+000  1.000000e+000  1.000000e+000              
   46 -4.500000e+001 -1.000000e+002   46   46  0.000000e+000  1.000000e+000  1.000000e+000  1.000000e+000              
   47 -4.600000e+001 -1.000000e+002   47   47  0.000000e+000  1.000000e+000  1.000000e+000  1.000000e+000              
   48 -4.700000e+001 -1.000000e+002   48   48  0.000000e+000  1.000000e+000  1.000000e+000  1.000000e+000              
   49 -4.800000e+001 -1.000000e+002   49   49  0.000000e+000  1.000000e+000  1.000000e+000  1.000000e+000              
   50 -4.900000e+001 -1.000000e+002   50   50  0.000000e+000  1.000000e+000  1.000000e+000  1.000000e+000              
   51 -5.000000e+001 -1.000000e+002   51   51  0.000000e+000  1.000000e+000  1.000000e+000  1.000000e+000              
   52 -5.100000e+001 -1.000000e+002   52   52  0.000000e+000  1.000000e+000  1.000000e+000  1.000000e+000              
   53 -5.200000e+001 -1.000000e+002   53   53  0.000000e+000  1.000000e+000  1.000000e+000  1.000000e+000              
   54 -5.300000e+001 -1.000000e+002   54   54  0.000000e+000  1.000000e+000  1.000000e+000  1.000000e+000              
   55 -5.400000e+001 -1.000000e+002   55   55  0.000000e+000  1.000000e+000  1.000000e+000  1.000000e+000              
   56 -5.500000e+001 -1.000000e+002   56   56  0.000000e+000  1.000000e+000  1.000000e+000  1.000000e+000              
   57 -5.600000e+001 -1.000000e+002   57   57  0.000000e+000  1.000000e+000  1.000000e+000  1.000000e+000              
   58 -5.700000e+001 -1.000000e+002   58   58  0.000000e+000  1.000000e+000  1.000000e+000  1.000000e+000              
   59 -5.800000e+001 -1.000000e+002   59   59  0.000000e+000  1.000000e+000  1.000000e+000  1.000000e+000              
   60 -5.900000e+001 -1.000000e+002   60   60  0.000000e+000  1.000000e+000  1.000000e+000  1.000000e+000              
   61 -6.000000e+001 -1.000000e+002   61   61  0.000000e+000  1.000000e+000  1.000000e+000  1.000000e+000              
   62 -6.100000e+001 -1.000000e+002   62   62  0.000000e+000  1.000000e+000  1.000000e+000  1.000000e+000              
   63 -6.200000e+001 -1.000000e+002   63   63  0.000000e+000  1.000000e+000  1.000000e+000  1.000000e+000              
   64 -6.300000e+001 -1.000000e+002   64   64  0.000000e+000  1.000000e+000  1.000000e+000  1.000000e+000              
   65 -6.400000e+001 -1.000000e+002   65   65  0.000000e+000  1.000000e+000  1.000000e+000  1.000000e+000              
   66 -6.500000e+001 -1.000000e+002   66   66  0.000000e+000  1.000000e+000  1.000000e+000  1.000000e+000              
   67 -6.600000e+001 -1.000000e+002   67   67  0.000000e+000  1.000000e+000  1.000000e+000  1.000000e+000              
   68 -6.700000e+001 -1.000000e+002   68   68  0.000000e+000  1.000000e+000  1.000000e+000  1.000000e+000              
   69 -6.800000e+001 -1.000000e+002   69   69  0.000000e+000  1.000000e+000  1.000000e+000  1.000000e+000              
   70 -6.900000e+001 -1.000000e+002   70   70  0.000000e+000  1.000000e+000  1.000000e+000  1.000000e+000              
   71 -7.000000e+001 -1.000000e+002   71   71  0.000000e+000  1.000000e+000  1.000000e+000  1.000000e+000              
   72 -7.100000e+001 -1.000000e+002   72   72  0.000000e+000  1.000000e+000  1.000000e+000  1.000000e+000              
   73 -7.200000e+001 -1.000000e+002   73   73  0.000000e+000  1.000000e+000  1.000000e+000  1.000000e+000              
   74 -7.300000e+001 -1.000000e+002   74   74  0.000000e+000  1.000000e+000  1.000000e+000  1.000000e+000              
   75 -7.400000e+001 -1.000000e+002   75   75  0.000000e+000  1.000000e+000  1.000000e+000  1.000000e+000              
   76 -7.500000e+001 -1.000000e+002   76   76  0.000000e+000  1.000000e+000  1.000000e+000  1.000000e+000              
   77 -7.600000e+001 -1.000000e+002   77   77  0.000000e+000  1.000000e+000  1.000000e+000  1.000000e+000              
   78 -7.700000e+001 -1.000000e+002   78   78  0.000000e+000  1.000000e+000  1.000000e+000  1.000000e+000              
   79 -7.800000e+001 -1.000000e+002   79   79  0.000000e+000  1.000000e+000  1.000000e+000  1.000000e+000              
   80 -7.900000e+001 -1.000000e+002   80   80  0.000000e+000  1.000000e+000  1.000000e+000  1.000000e+000              
   81 -8.000000e+001 -1.000000e+002   81   81  0.000000e+000  1.000000e+000  1.000000e+000  1.000000e+000              
   82 -8.100000e+001 -1.000000e+002   82   82  0.000000e+000  1.000000e+000  1.000000e+000  1.000000e+000              
   83 -8.200000e+001 -1.000000e+002   83   83  0.000000e+000  1.000000e+000  1.000000e+000  1.000000e+000              
   84 -8.300000e+001 -1.000000e+002   84   84  0.000000e+000  1.000000e+000  1.000000e+000  1.000000e+000              
   85 -8.400000e+001 -1.000000e+002   85   85  0.000000e+000  1.000000e+000  1.000000e+000  1.000000e+000              
   86 -8.500000e+001 -1.000000e+002   86   86  0.000000e+000  1.000000e+000  1.000000e+000  1.000000e+000              
   87 -8.600000e+001 -1.000000e+002   87   87  0.000000e+000  1.000000e+000  1.000000e+000  1.000000e+000              
   88 -8.700000e+001 -1.000000e+002   88   88  0.000000e+000  1.000000e+000  1.000000e+000  1.000000e+000              
   89 -8.800000e+001 -1.000000e+002   89   89  0.000000e+000  1.000000e+000  1.000000e+000  1.000000e+000              
   90 -8.900000e+001 -1.000000e+002   90   90  0.000000e+000  1.000000e+000  1.000000e+000  1.000000e+000              
   91 -9.000000e+001 -1.000000e+002   91   91  0.000000e+000  1.000000e+000  1.000000e+000  1.000000e+000              
   92 -9.100000e+001 -1.000000e+002   92   92  0.000000e+000  1.000000e+000  1.000000e+000  1.000000e+000              
   93 -9.200000e+001 -1.000000e+002   93   93  0.000000e+000  1.000000e+000  1.000000e+000  1.000000e+000              
   94 -9.300000e+001 -1.000000e+002   94   94  0.000000e+000  1.000000e+000  1.000000e+000  1.000000e+000              
   95 -9.400000e+001 -1.000000e+002   95   95  0.000000e+000  1.000000e+000  1.000000e+000  1.000000e+000              
   96 -9.500000e+001 -1.000000e+002   96   96  0.000000e+000  1.000000e+000  1.000000e+000  1.000000e+000              
   97 -9.600000e+001 -1.000000e+002   97   97  0.000000e+000  1.000000e+000  1.000000e+000  1.000000e+000              
   98 -9.700000e+001 -1.000000e+002   98   98  0.000000e+000  1.000000e+000  1.000000e+000  1.000000e+000              
   99 -9.800000e+001 -1.000000e+002   99   99  0.000000e+000  1.000000e+000  1.000000e+000  1.000000e+000              
  100 -9.900000e+001 -1.000000e+002  100  100  0.000000e+000  1.000000e+000  1.000000e+000  1.000000e+000              
    0
