Pcp_File_Version=4
*** BLOCK A: BASIC INFORMATION *****************************************
Heading
Welcome to HYDRUS-1D
LUnit  TUnit  MUnit  (indicated units are obligatory for all input data)
cm
days
mmol
lWat   lChem lTemp  lSink lRoot lShort lWDep lScreen lVariabBC lEquil lInverse
 t     f     f      f     f     f      f     t       t         t         f
lSnow  lHP1   lMeteo  lVapor lActiveU lFluxes lIrrig  lDummy  lDummy  lDummy
 f       f       f       f       f       t       f       f       f       f
NMat    NLay  CosAlpha
100       1       1
*** BLOCK B: WATER FLOW INFORMATION ************************************
MaxIt   TolTh   TolH       (maximum number of iterations and tolerances)
  10    0.001      1
TopInf WLayer KodTop InitCond
 t     t      -1       f
BotInf qGWLF FreeD SeepF KodBot DrainF  hSeep
 f     f     t     f     -1      f      0
    hTab1   hTabN
    1e-006   10000
    Model   Hysteresis
      0          0
   thr     ths    Alfa      n         Ks       l
  0.045    0.43 0.0558182 1.52533    17.6504     0.5 
  0.078    0.43 0.056219 1.52398    17.4913     0.5 
  0.078    0.43 0.0562148 1.52124    17.4196     0.5 
  0.078    0.43 0.0558786 1.51702    17.4286     0.5 
  0.078    0.43 0.0553346 1.51115    17.5066     0.5 
  0.078    0.43 0.0547369 1.50346    17.6368     0.5 
  0.078    0.43 0.054247  1.4938    17.7967     0.5 
  0.078    0.43 0.0540145 1.48201    17.9591     0.5 
  0.078    0.43 0.0541627 1.46804    18.0941     0.5 
  0.078    0.43 0.0547785  1.4519    18.1726     0.5 
  0.078    0.43 0.0559054 1.43372    18.1715     0.5 
  0.078    0.43 0.0575358 1.41376    18.0782     0.5 
  0.078    0.43 0.0596028 1.39237    17.8953     0.5 
  0.078    0.43 0.0619722 1.37004     17.642     0.5 
  0.078    0.43 0.064439 1.34731    17.3521     0.5 
  0.078    0.43 0.0667366 1.32481    17.0697     0.5 
  0.078    0.43 0.0685615 1.30315    16.8432     0.5 
  0.078    0.43 0.0696186 1.28296    16.7178     0.5 
  0.078    0.43 0.0696779 1.26481    16.7306     0.5 
  0.078    0.43 0.0686282  1.2492    16.9042     0.5 
  0.078    0.43 0.0665094 1.23654    17.2429     0.5 
  0.078    0.43 0.063509 1.22712    17.7264     0.5 
  0.078    0.43 0.0599247  1.2211    18.3058     0.5 
  0.078    0.43 0.0561051  1.2185    18.9005     0.5 
  0.078    0.43 0.0523897 1.21922    19.4026     0.5 
  0.078    0.43 0.0490667   1.223    19.6911     0.5 
  0.078    0.43 0.0463533 1.22944    19.6565     0.5 
  0.078    0.43 0.0443978 1.23804    19.2319     0.5 
  0.078    0.43 0.0432941 1.24817    18.4173     0.5 
  0.078    0.43 0.0430991 1.25913    17.2847     0.5 
  0.078    0.43 0.0438451 1.27019    15.9619     0.5 
  0.078    0.43 0.0455435 1.28061    14.5993     0.5 
  0.078    0.43 0.0481762 1.28973    13.3372     0.5 
  0.078    0.43 0.0516749 1.29699    12.2846     0.5 
  0.078    0.43 0.0558921 1.30201    11.5143     0.5 
  0.078    0.43 0.0605726 1.30463    11.0702     0.5 
  0.078    0.43 0.0653394 1.30488     10.979     0.5 
  0.078    0.43 0.069711 1.30307     11.261     0.5 
  0.078    0.43 0.0731623 1.29971    11.9353     0.5 
  0.078    0.43 0.0752231 1.29549    13.0168     0.5 
  0.078    0.43 0.0755878 1.29124    14.5061     0.5 
  0.078    0.43 0.0741957 1.28789    16.3721     0.5 
  0.078    0.43 0.0712465 1.28638    18.5346     0.5 
  0.078    0.43 0.0671457 1.28762    20.8554     0.5 
  0.078    0.43 0.0624026 1.29245    23.1506     0.5 
  0.078    0.43 0.0575222 1.30157    25.2271     0.5 
  0.078    0.43 0.0529251 1.31556    26.9342     0.5 
  0.078    0.43 0.0489113 1.33477     28.208     0.5 
  0.078    0.43 0.0456609 1.35936    29.0884     0.5 
  0.078    0.43 0.0432574 1.38921    29.7023     0.5 
  0.078    0.43 0.0417169 1.42393    30.2247     0.5 
  0.078    0.43 0.0410122 1.46279    30.8361     0.5 
  0.078    0.43 0.0410868 1.50475    31.6882     0.5 
  0.078    0.43 0.0418591 1.54845    32.8817     0.5 
  0.078    0.43 0.0432179 1.59222    34.4516     0.5 
  0.078    0.43 0.0450151 1.63419    36.3559     0.5 
  0.078    0.43 0.0470606 1.67237    38.4695     0.5 
  0.078    0.43 0.0491271 1.70482    40.5908     0.5 
  0.078    0.43 0.0509689  1.7298    42.4699     0.5 
  0.078    0.43 0.0523548 1.74598    43.8632     0.5 
  0.078    0.43 0.0531085 1.75252    44.6012     0.5 
  0.078    0.43 0.0531441 1.74924    44.6455     0.5 
  0.078    0.43 0.0524833 1.73659    44.1071     0.5 
  0.078    0.43 0.0512482 1.71567    43.2191     0.5 
  0.078    0.43 0.0496325 1.68806     42.278     0.5 
  0.078    0.43 0.0478619 1.65572    41.5814     0.5 
  0.078    0.43 0.0461569 1.62076    41.3829     0.5 
  0.078    0.43 0.0447059 1.58534    41.8681     0.5 
  0.078    0.43 0.0436526 1.55147    43.1426     0.5 
  0.078    0.43 0.0430931 1.52094    45.2172     0.5 
  0.078    0.43 0.0430787 1.49522    47.9811     0.5 
  0.078    0.43 0.0436187 1.47545    51.1677     0.5 
  0.078    0.43 0.0446803 1.46241    54.3346     0.5 
  0.078    0.43 0.0461847 1.45653    56.8929     0.5 
  0.078    0.43 0.0480025  1.4579     58.216     0.5 
  0.078    0.43 0.0499512 1.46625    57.8164     0.5 
  0.078    0.43 0.0518027 1.48099    55.5228     0.5 
  0.078    0.43 0.053304 1.50117    51.5597     0.5 
  0.078    0.43 0.054213 1.52553    46.4747     0.5 
  0.078    0.43 0.0543424 1.55246    40.9512     0.5 
  0.078    0.43 0.0535989 1.58013    35.6083     0.5 
  0.078    0.43 0.0520054 1.60654    30.8758     0.5 
  0.078    0.43 0.0496955 1.62961    26.9689     0.5 
  0.078    0.43 0.0468833 1.64743     23.931     0.5 
  0.078    0.43 0.0438181 1.65832    21.6976     0.5 
  0.078    0.43 0.0407404 1.66111    20.1506     0.5 
  0.078    0.43 0.0378497 1.65516    19.1509     0.5 
  0.078    0.43 0.0352889 1.64054    18.5543     0.5 
  0.078    0.43 0.0331438 1.61795    18.2171     0.5 
  0.078    0.43 0.0314509 1.58867    18.0016     0.5 
  0.078    0.43 0.0302097 1.55444     17.787     0.5 
  0.078    0.43 0.0293923 1.51727    17.4835     0.5 
  0.078    0.43 0.0289518 1.47929    17.0475     0.5 
  0.078    0.43 0.0288271 1.44256    16.4866     0.5 
  0.078    0.43 0.0289458 1.40896    15.8529     0.5 
  0.078    0.43 0.0292278 1.38011    15.2256     0.5 
  0.078    0.43 0.0295899 1.35733    14.6906     0.5 
  0.078    0.43 0.0299529 1.34161    14.3241     0.5 
  0.078    0.43 0.0302508 1.33361    14.1848     0.5 
  0.078    0.43 0.0304402  1.3337    14.3103     0.5 
*** BLOCK C: TIME INFORMATION ******************************************
        dt       dtMin       dtMax     DMul    DMul2  ItMin ItMax  MPL
      0.001      1e-005           5     1.3     0.7     3     7   100
      tInit        tMax
          0          10
  lPrintD  nPrintSteps tPrintInterval lEnter
     f           1             1       t
TPrint(1),TPrint(2),...,TPrint(MPL)
        0.1         0.2         0.3         0.4         0.5         0.6 
        0.7         0.8         0.9           1         1.1         1.2 
        1.3         1.4         1.5         1.6         1.7         1.8 
        1.9           2         2.1         2.2         2.3         2.4 
        2.5         2.6         2.7         2.8         2.9           3 
        3.1         3.2         3.3         3.4         3.5         3.6 
        3.7         3.8         3.9           4         4.1         4.2 
        4.3         4.4         4.5         4.6         4.7         4.8 
        4.9           5         5.1         5.2         5.3         5.4 
        5.5         5.6         5.7         5.8         5.9           6 
        6.1         6.2         6.3         6.4         6.5         6.6 
        6.7         6.8         6.9           7         7.1         7.2 
        7.3         7.4         7.5         7.6         7.7         7.8 
        7.9           8         8.1         8.2         8.3         8.4 
        8.5         8.6         8.7         8.8         8.9           9 
        9.1         9.2         9.3         9.4         9.5         9.6 
        9.7         9.8         9.9          10 
*** END OF INPUT FILE 'SELECTOR.IN' ************************************
